*Heading
** Job name: Biaxial Model name: Biaxial
** Generated by: Abaqus/CAE 2020
*Preprint, echo=NO, model=NO, history=NO, contact=NO
**
** PARTS
**
*Part, name=Part-1
*Node
      1,   1.51499999,   1.42999995,           1.
      2,    2.4849999,   1.42999995,           1.
      3,    2.4849999,   2.56999993,           1.
      4,   1.51499999,   2.56999993,           1.
      5,   1.13499999,   1.42999995,           1.
      6,   1.13499999,         0.75,           1.
      7,   2.86500001,         0.75,           1.
      8,   2.86500001,   1.42999995,           1.
      9,   2.86500001,   2.56999993,           1.
     10,   2.86500001,         3.25,           1.
     11,   1.13499999,         3.25,           1.
     12,   1.13499999,   2.56999993,           1.
     13,   1.13499999,         3.25,           0.
     14,   2.86500001,         3.25,           0.
     15,   2.86500001,   2.56999993,           0.
     16,    2.4849999,   2.56999993,           0.
     17,    2.4849999,   1.42999995,           0.
     18,   2.86500001,   1.42999995,           0.
     19,   2.86500001,         0.75,           0.
     20,   1.13499999,         0.75,           0.
** ... 20382 like lines cut
*Element, type=C3D8R
   1,   84, 1351, 1305,    1,  461, 3394, 3348,   22
   2, 1351, 1352, 1306, 1305, 3394, 3395, 3349, 3348
   3, 1352, 1353, 1307, 1306, 3395, 3396, 3350, 3349
   4, 1353, 1354, 1308, 1307, 3396, 3397, 3351, 3350
   5, 1354, 1355, 1309, 1308, 3397, 3398, 3352, 3351
   6, 1355, 1356, 1310, 1309, 3398, 3399, 3353, 3352
   7, 1356, 1357, 1311, 1310, 3399, 3400, 3354, 3353
   8, 1357, 1358, 1312, 1311, 3400, 3401, 3355, 3354
   9, 1358, 1359, 1313, 1312, 3401, 3402, 3356, 3355
  10, 1359, 1360, 1314, 1313, 3402, 3403, 3357, 3356
  11, 1360, 1361, 1315, 1314, 3403, 3404, 3358, 3357
  12, 1361, 1362, 1316, 1315, 3404, 3405, 3359, 3358
  13, 1362, 1363, 1317, 1316, 3405, 3406, 3360, 3359
  14, 1363, 1364, 1318, 1317, 3406, 3407, 3361, 3360
  15, 1364, 1365, 1319, 1318, 3407, 3408, 3362, 3361
  16, 1365, 1366, 1320, 1319, 3408, 3409, 3363, 3362
  17, 1366, 1367, 1321, 1320, 3409, 3410, 3364, 3363
  18, 1367, 1368, 1322, 1321, 3410, 3411, 3365, 3364
  19, 1368, 1369, 1323, 1322, 3411, 3412, 3366, 3365
  20, 1369, 1370, 1324, 1323, 3412, 3413, 3367, 3366
** ... 9980 like lines cut
*Nset, nset=_PickedSet13, internal
     1,     2,     3,     4,     5,     6,     7,     8,     9,    10,    11,    12,    13,    14,    15,    16
    17,    18,    19,    20,    21,    22,    23,    24,    25,    26,    27,    28,    29,    30,    31,    32
    33,    34,    35,    36,    37,    38,    39,    40,    41,    42,    43,    44,    45,    46,    47,    48
    49,    50,    51,    52,    53,    54,    55,    56,    57,    58,    59,    60,    61,    62,    63,    64
    65,    66,    67,    68,    69,    70,    71,    72,    73,    74,    75,    76,    77,    78,    79,    80
    81,    82,    83,    84,    85,    86,    87,    88,    89,    90,    91,    92,    93,    94,    95,    96
    97,    98,    99,   100,   101,   102,   103,   104,   105,   106,   107,   108,   109,   110,   111,   112
   113,   114,   115,   116,   117,   118,   119,   120,   121,   122,   123,   124,   125,   126,   127,   128
   129,   130,   131,   132,   133,   134,   135,   136,   137,   138,   139,   140,   141,   142,   143,   144
   145,   146,   147,   148,   149,   150,   151,   152,   153,   154,   155,   156,   157,   158,   159,   160
   161,   162,   163,   164,   165,   166,   167,   168,   169,   170,   171,   172,   173,   174,   175,   176
   177,   178,   179,   180,   181,   182,   183,   184,   185,   186,   187,   188,   189,   190,   191,   192
   193,   194,   195,   196,   197,   198,   199,   200,   201,   202,   203,   204,   205,   206,   207,   208
   209,   210,   211,   212,   213,   214,   215,   216,   217,   218,   219,   220,   221,   222,   223,   224
   225,   226,   227,   228,   229,   230,   231,   232,   233,   234,   235,   236,   237,   238,   239,   240
   241,   242,   243,   244,   245,   246,   247,   248,   249,   250,   251,   252,   253,   254,   255,   256
   257,   258,   259,   260,   261,   262,   263,   264,   265,   266,   267,   268,   269,   270,   271,   272
   273,   274,   275,   276,   277,   278,   279,   280,   281,   282,   283,   284,   285,   286,   287,   288
   289,   290,   291,   292,   293,   294,   295,   296,   297,   298,   299,   300,   301,   302,   303,   304
   305,   306,   307,   308,   309,   310,   311,   312,   313,   314,   315,   316,   317,   318,   319,   320
** ... 1000 like lines cut
*Elset, elset=_PickedSet13, internal, generate
  2169,  10000,      1
*Nset, nset=_PickedSet14, internal
    1,    2,    3,    4,    5,    6,    7,    8,    9,   10,   11,   12,   13,   14,   15,   16
   17,   18,   19,   20,   21,   22,   23,   24,   33,   34,   35,   36,   37,   38,   39,   40
   41,   42,   43,   44,   45,   46,   47,   48,   49,   50,   51,   52,   53,   54,   55,   56
   57,   58,   59,   60,   61,   62,   63,   64,   65,   66,   67,   68,   69,   70,   71,   72
   73,   74,   75,   76,   77,   78,   79,   80,   81,   82,   83,   84,   85,   86,   87,   88
   89,   90,   91,   92,   93,   94,   95,   96,   97,   98,   99,  100,  101,  102,  103,  104
  105,  106,  107,  108,  109,  110,  111,  112,  113,  114,  115,  116,  117,  118,  119,  120
  121,  122,  123,  124,  125,  126,  127,  128,  129,  130,  131,  132,  133,  134,  135,  136
  137,  138,  139,  140,  141,  142,  143,  144,  145,  146,  147,  148,  149,  150,  151,  152
  153,  154,  155,  156,  157,  158,  159,  160,  161,  162,  163,  164,  165,  166,  167,  168
  169,  170,  171,  172,  173,  174,  175,  176,  177,  178,  179,  180,  181,  182,  183,  184
  185,  186,  187,  188,  189,  190,  191,  192,  193,  194,  195,  196,  197,  198,  199,  200
  201,  202,  203,  204,  205,  206,  207,  208,  209,  210,  211,  212,  213,  214,  215,  216
  217,  218,  219,  220,  221,  222,  223,  224,  225,  226,  227,  228,  229,  230,  231,  232
  233,  234,  235,  236,  237,  238,  239,  240,  241,  242,  243,  244,  245,  246,  247,  248
  249,  250,  251,  252,  253,  254,  255,  256,  257,  258,  259,  260,  261,  262,  263,  264
  265,  266,  267,  268,  269,  270,  271,  272,  273,  274,  275,  276,  277,  278,  279,  280
  281,  282,  283,  284,  285,  286,  287,  288,  289,  290,  291,  292,  293,  294,  295,  296
  297,  298,  299,  300,  301,  302,  303,  304,  305,  306,  307,  308,  309,  310,  311,  312
  313,  314,  315,  316,  317,  318,  319,  320,  321,  322,  323,  324,  325,  326,  327,  328
** ... 267 like lines cut
*Elset, elset=_PickedSet14, internal, generate
    1,  2168,     1
** Section: Low
*Solid Section, elset=_PickedSet14, material=Low
,
** Section: High
*Solid Section, elset=_PickedSet13, material=High
,
*End Part
**  
**
** ASSEMBLY
**
*Assembly, name=Assembly
**  
*Instance, name=Part-1-1, part=Part-1
*End Instance
**  
*Nset, nset=_PickedSet17, internal, instance=Part-1-1, generate
     1,  20402,      1
*Elset, elset=_PickedSet17, internal, instance=Part-1-1, generate
     1,  10000,      1
*Nset, nset=_PickedSet18, internal, instance=Part-1-1
   25,   28,   29,   30,  612,  613,  614,  615,  616,  617,  618,  619,  620,  621,  622,  623
  624,  625,  626,  627,  628,  629,  630,  631,  632,  633,  634,  635,  636,  637,  638,  639
  640,  641,  642,  643,  644,  645,  646,  647,  648,  649,  650,  651,  652,  653,  654,  655
  656,  657,  658,  659,  660,  661,  662,  663,  664,  665,  666,  667,  668,  669,  670,  671
  672,  673,  674,  675,  676,  677,  678,  679,  680,  681,  682,  683,  684,  685,  686,  687
  688,  689,  690,  691,  692,  693,  694,  695,  696,  697,  698,  699,  700,  701,  702,  703
  704,  705,  706,  707,  708,  709,  710,  909,  910,  911,  912,  913,  914,  915,  916,  917
  918,  919,  920,  921,  922,  923,  924,  925,  926,  927,  928,  929,  930,  931,  932,  933
  934,  935,  936,  937,  938,  939,  940,  941,  942,  943,  944,  945,  946,  947,  948,  949
  950,  951,  952,  953,  954,  955,  956,  957,  958,  959,  960,  961,  962,  963,  964,  965
  966,  967,  968,  969,  970,  971,  972,  973,  974,  975,  976,  977,  978,  979,  980,  981
  982,  983,  984,  985,  986,  987,  988,  989,  990,  991,  992,  993,  994,  995,  996,  997
  998,  999, 1000, 1001, 1002, 1003, 1004, 1005, 1006, 1007
*Elset, elset=_PickedSet18, internal, instance=Part-1-1
 2169, 2170, 2171, 2172, 2173, 2174, 2175, 2176, 2177, 2178, 2179, 2180, 2181, 2182, 2183, 2184
 2185, 2186, 2187, 2188, 2189, 2190, 2191, 2192, 2193, 2194, 2195, 2196, 4969, 4988, 5007, 5026
 5045, 5064, 5083, 5102, 5121, 5140, 5159, 5178, 5197, 5216, 5235, 5254, 5273, 5292, 5311, 5330
 5349, 5368, 5387, 5406, 5425, 5444, 5463, 5482, 5501, 5520, 5539, 5558, 5577, 5596, 5615, 5634
 5653, 5672, 5691, 5710, 5729, 5748, 5767, 5786, 9693, 9694, 9695, 9696, 9697, 9698, 9699, 9700
 9701, 9702, 9703, 9704, 9705, 9706, 9707, 9708, 9709, 9710, 9711, 9712, 9713, 9714, 9715, 9716
 9717, 9718, 9719, 9720
*Nset, nset=_PickedSet19, internal, instance=Part-1-1
   25,   26,   27,   28,   29,   30,   31,   32,  513,  514,  515,  516,  517,  518,  519,  520
  521,  522,  523,  524,  525,  526,  527,  528,  529,  530,  531,  532,  533,  534,  535,  536
  537,  538,  539,  540,  541,  542,  543,  544,  545,  546,  547,  548,  549,  550,  551,  552
  553,  554,  555,  556,  557,  558,  559,  560,  561,  562,  563,  564,  565,  566,  567,  568
  569,  570,  571,  572,  573,  574,  575,  576,  577,  578,  579,  580,  581,  582,  583,  584
  585,  586,  587,  588,  589,  590,  591,  592,  593,  594,  595,  596,  597,  598,  599,  600
  601,  602,  603,  604,  605,  606,  607,  608,  609,  610,  611,  711,  712,  713,  714,  715
  716,  717,  718,  719,  720,  721,  722,  723,  724,  725,  726,  727,  728,  729,  730,  731
  732,  733,  734,  735,  736,  737,  738,  739,  740,  741,  742,  743,  744,  745,  746,  747
  748,  749,  750,  751,  752,  753,  754,  755,  756,  757,  758,  759,  760,  761,  762,  763
  764,  765,  766,  767,  768,  769,  770,  771,  772,  773,  774,  775,  776,  777,  778,  779
  780,  781,  782,  783,  784,  785,  786,  787,  788,  789,  790,  791,  792,  793,  794,  795
  796,  797,  798,  799,  800,  801,  802,  803,  804,  805,  806,  807,  808,  809,  810,  811
  812,  813,  814,  815,  816,  817,  818,  819,  820,  821,  822,  823,  824,  825,  826,  827
  828,  829,  830,  831,  832,  833,  834,  835,  836,  837,  838,  839,  840,  841,  842,  843
  844,  845,  846,  847,  848,  849,  850,  851,  852,  853,  854,  855,  856,  857,  858,  859
  860,  861,  862,  863,  864,  865,  866,  867,  868,  869,  870,  871,  872,  873,  874,  875
  876,  877,  878,  879,  880,  881,  882,  883,  884,  885,  886,  887,  888,  889,  890,  891
  892,  893,  894,  895,  896,  897,  898,  899,  900,  901,  902,  903,  904,  905,  906,  907
  908, 1008, 1009, 1010, 1011, 1012, 1013, 1014, 1015, 1016, 1017, 1018, 1019, 1020, 1021, 1022
** ... 18 like lines cut
*Elset, elset=_PickedSet19, internal, instance=Part-1-1
 2196, 2224, 2252, 2280, 2308, 2336, 2364, 2392, 2420, 2448, 2476, 2504, 2532, 2560, 2588, 2616
 2644, 2672, 2700, 2728, 2756, 2784, 2812, 2840, 2868, 2896, 2924, 2952, 2980, 3008, 3036, 3064
 3092, 3120, 3148, 3176, 3204, 3232, 3260, 3288, 3316, 3344, 3372, 3400, 3428, 3456, 3484, 3512
 3540, 3568, 3596, 3624, 3652, 3680, 3708, 3736, 3764, 3792, 3820, 3848, 3876, 3904, 3932, 3960
 3988, 4016, 4044, 4072, 4100, 4128, 4156, 4184, 4212, 4240, 4268, 4296, 4324, 4352, 4380, 4408
 4436, 4464, 4492, 4520, 4548, 4576, 4604, 4632, 4660, 4688, 4716, 4744, 4772, 4800, 4828, 4856
 4884, 4912, 4940, 4941, 4942, 4943, 4944, 4945, 4946, 4947, 4948, 4949, 4950, 4951, 4952, 4953
 4954, 4955, 4956, 4957, 4958, 4959, 4960, 4961, 4962, 4963, 4964, 4965, 4966, 4967, 4968, 5805
 5824, 5843, 5862, 5881, 5900, 5919, 5938, 5957, 5976, 5995, 6014, 6033, 6052, 6071, 6090, 6109
 6128, 6147, 6166, 6185, 6204, 6223, 6242, 6261, 6280, 6299, 6318, 6337, 6356, 6375, 6394, 6413
 6432, 6451, 6470, 6489, 6508, 6527, 6546, 6565, 6584, 6603, 6622, 6921, 6922, 6923, 6924, 6925
 6926, 6927, 6928, 6929, 6930, 6931, 6932, 6933, 6934, 6935, 6936, 6937, 6938, 6939, 6940, 6941
 6942, 6943, 6944, 6945, 6946, 6947, 6948, 6976, 7004, 7032, 7060, 7088, 7116, 7144, 7172, 7200
 7228, 7256, 7284, 7312, 7340, 7368, 7396, 7424, 7452, 7480, 7508, 7536, 7564, 7592, 7620, 7648
 7676, 7704, 7732, 7760, 7788, 7816, 7844, 7872, 7900, 7928, 7956, 7984, 8012, 8040, 8068, 8096
 8124, 8152, 8180, 8208, 8236, 8264, 8292, 8320, 8348, 8376, 8404, 8432, 8460, 8488, 8516, 8544
 8572, 8600, 8628, 8656, 8684, 8712, 8740, 8768, 8796, 8824, 8852, 8880, 8908, 8936, 8964, 8992
 9020, 9048, 9076, 9104, 9132, 9160, 9188, 9216, 9244, 9272, 9300, 9328, 9356, 9384, 9412, 9440
 9468, 9496, 9524, 9552, 9580, 9608, 9636, 9664, 9692, 9720
*End Assembly
** 
** MATERIALS
** 
*Material, name=High
*Elastic
1000., 0.3
*Plastic
 60.,0.
560.,1.
*Material, name=Low
*Elastic
1000., 0.3
*Plastic
 50.,0.
550.,1.
** ----------------------------------------------------------------
** 
** STEP: Step-1
** 
*Step, name=Step-1, nlgeom=NO
*Static
1., 1., 1e-05, 1.
** 
** BOUNDARY CONDITIONS
** 
** Name: BC-1 Type: Displacement/Rotation
*Boundary
_PickedSet17, 3, 3
** Name: BC-2 Type: Displacement/Rotation
*Boundary
_PickedSet18, 1, 1
_PickedSet18, 2, 2
** Name: BC-3 Type: Displacement/Rotation Using Analytical Field: AnalyticalField-1
*Boundary
Part-1-1.25, 1, 1
Part-1-1.26, 1, 1, 0.5
Part-1-1.27, 1, 1, 0.5
Part-1-1.28, 1, 1
Part-1-1.29, 1, 1
Part-1-1.30, 1, 1
Part-1-1.31, 1, 1, 0.5
Part-1-1.32, 1, 1, 0.5
Part-1-1.513, 1, 1, 0.495001
Part-1-1.514, 1, 1, 0.490002
Part-1-1.515, 1, 1, 0.485003
Part-1-1.516, 1, 1, 0.480004
Part-1-1.517, 1, 1, 0.475005
Part-1-1.518, 1, 1, 0.470006
Part-1-1.519, 1, 1, 0.465008
Part-1-1.520, 1, 1, 0.460009
Part-1-1.521, 1, 1, 0.45501
Part-1-1.522, 1, 1, 0.450011
Part-1-1.523, 1, 1, 0.445012
Part-1-1.524, 1, 1, 0.440013
** ... 1184 like lines cut
** 
** OUTPUT REQUESTS
** 
*Restart, write, frequency=0
** 
** FIELD OUTPUT: F-Output-1
** 
*Output, field, variable=PRESELECT
** 
** HISTORY OUTPUT: H-Output-1
** 
*Output, history, variable=PRESELECT
*End Step
