*Heading
** Job name: Shear Model name: Model-1
** Generated by: Abaqus/CAE 2020
*Preprint, echo=NO, model=NO, history=NO, contact=NO
**
** PARTS
**
*Part, name=Part-1
*Node
      1,           4.,           4.,           1.
      2,           4.,   3.96000004,           1.
      3,           4.,   3.92000008,           1.
      4,           4.,   3.88000011,           1.
      5,           4.,   3.83999991,           1.
      6,           4.,   3.79999995,           1.
      7,           4.,   3.75999999,           1.
      8,           4.,   3.72000003,           1.
      9,           4.,   3.68000007,           1.
     10,           4.,    3.6400001,           1.
     11,           4.,    3.5999999,           1.
     12,           4.,   3.55999994,           1.
     13,           4.,   3.51999998,           1.
     14,           4.,   3.48000002,           1.
     15,           4.,   3.44000006,           1.
     16,           4.,    3.4000001,           1.
     17,           4.,    3.3599999,           1.
     18,           4.,   3.31999993,           1.
     19,           4.,   3.27999997,           1.
     20,           4.,   3.24000001,           1.
** ... 20382 like lines cut
*Element, type=C3D8R
    1,   203,   204,   305,   304,     1,     2,   103,   102
    2,   204,   205,   306,   305,     2,     3,   104,   103
    3,   205,   206,   307,   306,     3,     4,   105,   104
    4,   206,   207,   308,   307,     4,     5,   106,   105
    5,   207,   208,   309,   308,     5,     6,   107,   106
    6,   208,   209,   310,   309,     6,     7,   108,   107
    7,   209,   210,   311,   310,     7,     8,   109,   108
    8,   210,   211,   312,   311,     8,     9,   110,   109
    9,   211,   212,   313,   312,     9,    10,   111,   110
   10,   212,   213,   314,   313,    10,    11,   112,   111
   11,   213,   214,   315,   314,    11,    12,   113,   112
   12,   214,   215,   316,   315,    12,    13,   114,   113
   13,   215,   216,   317,   316,    13,    14,   115,   114
   14,   216,   217,   318,   317,    14,    15,   116,   115
   15,   217,   218,   319,   318,    15,    16,   117,   116
   16,   218,   219,   320,   319,    16,    17,   118,   117
   17,   219,   220,   321,   320,    17,    18,   119,   118
   18,   220,   221,   322,   321,    18,    19,   120,   119
   19,   221,   222,   323,   322,    19,    20,   121,   120
   20,   222,   223,   324,   323,    20,    21,   122,   121
** ... 9980 like lines cut
*Nset, nset=_PickedSet5, internal, generate
     1,  20402,      1
*Elset, elset=_PickedSet5, internal, generate
     1,  10000,      1
** Section: Section-2
*Solid Section, elset=_PickedSet5, material=Material-2
,
*End Part
**  
**
** ASSEMBLY
**
*Assembly, name=Assembly
**  
*Instance, name=Part-1-1, part=Part-1
*End Instance
**  
*Nset, nset=_PickedSet4, internal, instance=Part-1-1, generate
     1,  20402,      1
*Elset, elset=_PickedSet4, internal, instance=Part-1-1, generate
     1,  10000,      1
*Nset, nset=_PickedSet5, internal, instance=Part-1-1
     1,     2,     3,     4,     5,     6,     7,     8,     9,    10,    11,    12,    13,    14,    15,    16
    17,    18,    19,    20,    21,    22,    23,    24,    25,    26,    27,    28,    29,    30,    31,    32
    33,    34,    35,    36,    37,    38,    39,    40,    41,    42,    43,    44,    45,    46,    47,    48
    49,    50,    51,    52,    53,    54,    55,    56,    57,    58,    59,    60,    61,    62,    63,    64
    65,    66,    67,    68,    69,    70,    71,    72,    73,    74,    75,    76,    77,    78,    79,    80
    81,    82,    83,    84,    85,    86,    87,    88,    89,    90,    91,    92,    93,    94,    95,    96
    97,    98,    99,   100,   101,   102,   103,   104,   105,   106,   107,   108,   109,   110,   111,   112
   113,   114,   115,   116,   117,   118,   119,   120,   121,   122,   123,   124,   125,   126,   127,   128
   129,   130,   131,   132,   133,   134,   135,   136,   137,   138,   139,   140,   141,   142,   143,   144
   145,   146,   147,   148,   149,   150,   151,   152,   153,   154,   155,   156,   157,   158,   159,   160
   161,   162,   163,   164,   165,   166,   167,   168,   169,   170,   171,   172,   173,   174,   175,   176
   177,   178,   179,   180,   181,   182,   183,   184,   185,   186,   187,   188,   189,   190,   191,   192
   193,   194,   195,   196,   197,   198,   199,   200,   201,   202,   203,   303,   304,   404,   405,   505
   506,   606,   607,   707,   708,   808,   809,   909,   910,  1010,  1011,  1111,  1112,  1212,  1213,  1313
  1314,  1414,  1415,  1515,  1516,  1616,  1617,  1717,  1718,  1818,  1819,  1919,  1920,  2020,  2021,  2121
  2122,  2222,  2223,  2323,  2324,  2424,  2425,  2525,  2526,  2626,  2627,  2727,  2728,  2828,  2829,  2929
  2930,  3030,  3031,  3131,  3132,  3232,  3233,  3333,  3334,  3434,  3435,  3535,  3536,  3636,  3637,  3737
  3738,  3838,  3839,  3939,  3940,  4040,  4041,  4141,  4142,  4242,  4243,  4343,  4344,  4444,  4445,  4545
  4546,  4646,  4647,  4747,  4748,  4848,  4849,  4949,  4950,  5050,  5051,  5151,  5152,  5252,  5253,  5353
  5354,  5454,  5455,  5555,  5556,  5656,  5657,  5757,  5758,  5858,  5859,  5959,  5960,  6060,  6061,  6161
** ... 30 like lines cut
*Elset, elset=_PickedSet5, internal, instance=Part-1-1
     1,     2,     3,     4,     5,     6,     7,     8,     9,    10,    11,    12,    13,    14,    15,    16
    17,    18,    19,    20,    21,    22,    23,    24,    25,    26,    27,    28,    29,    30,    31,    32
    33,    34,    35,    36,    37,    38,    39,    40,    41,    42,    43,    44,    45,    46,    47,    48
    49,    50,    51,    52,    53,    54,    55,    56,    57,    58,    59,    60,    61,    62,    63,    64
    65,    66,    67,    68,    69,    70,    71,    72,    73,    74,    75,    76,    77,    78,    79,    80
    81,    82,    83,    84,    85,    86,    87,    88,    89,    90,    91,    92,    93,    94,    95,    96
    97,    98,    99,   100,   101,   200,   201,   300,   301,   400,   401,   500,   501,   600,   601,   700
   701,   800,   801,   900,   901,  1000,  1001,  1100,  1101,  1200,  1201,  1300,  1301,  1400,  1401,  1500
  1501,  1600,  1601,  1700,  1701,  1800,  1801,  1900,  1901,  2000,  2001,  2100,  2101,  2200,  2201,  2300
  2301,  2400,  2401,  2500,  2501,  2600,  2601,  2700,  2701,  2800,  2801,  2900,  2901,  3000,  3001,  3100
  3101,  3200,  3201,  3300,  3301,  3400,  3401,  3500,  3501,  3600,  3601,  3700,  3701,  3800,  3801,  3900
  3901,  4000,  4001,  4100,  4101,  4200,  4201,  4300,  4301,  4400,  4401,  4500,  4501,  4600,  4601,  4700
  4701,  4800,  4801,  4900,  4901,  5000,  5001,  5100,  5101,  5200,  5201,  5300,  5301,  5400,  5401,  5500
  5501,  5600,  5601,  5700,  5701,  5800,  5801,  5900,  5901,  6000,  6001,  6100,  6101,  6200,  6201,  6300
  6301,  6400,  6401,  6500,  6501,  6600,  6601,  6700,  6701,  6800,  6801,  6900,  6901,  7000,  7001,  7100
  7101,  7200,  7201,  7300,  7301,  7400,  7401,  7500,  7501,  7600,  7601,  7700,  7701,  7800,  7801,  7900
  7901,  8000,  8001,  8100,  8101,  8200,  8201,  8300,  8301,  8400,  8401,  8500,  8501,  8600,  8601,  8700
  8701,  8800,  8801,  8900,  8901,  9000,  9001,  9100,  9101,  9200,  9201,  9300,  9301,  9400,  9401,  9500
  9501,  9600,  9601,  9700,  9701,  9800,  9801,  9900,  9901,  9902,  9903,  9904,  9905,  9906,  9907,  9908
  9909,  9910,  9911,  9912,  9913,  9914,  9915,  9916,  9917,  9918,  9919,  9920,  9921,  9922,  9923,  9924
** ... 5 like lines cut
*Nset, nset=_PickedSet6, internal, instance=Part-1-1, generate
   101,  20402,    101
*Elset, elset=_PickedSet6, internal, instance=Part-1-1, generate
   100,  10000,    100
*Nset, nset=_PickedSet9, internal, instance=Part-1-1
     1,     2,     3,     4,     5,     6,     7,     8,     9,    10,    11,    12,    13,    14,    15,    16
    17,    18,    19,    20,    21,    22,    23,    24,    25,    26,    27,    28,    29,    30,    31,    32
    33,    34,    35,    36,    37,    38,    39,    40,    41,    42,    43,    44,    45,    46,    47,    48
    49,    50,    51,    52,    53,    54,    55,    56,    57,    58,    59,    60,    61,    62,    63,    64
    65,    66,    67,    68,    69,    70,    71,    72,    73,    74,    75,    76,    77,    78,    79,    80
    81,    82,    83,    84,    85,    86,    87,    88,    89,    90,    91,    92,    93,    94,    95,    96
    97,    98,    99,   100,   101,   102,   103,   104,   105,   106,   107,   108,   109,   110,   111,   112
   113,   114,   115,   116,   117,   118,   119,   120,   121,   122,   123,   124,   125,   126,   127,   128
   129,   130,   131,   132,   133,   134,   135,   136,   137,   138,   139,   140,   141,   142,   143,   144
   145,   146,   147,   148,   149,   150,   151,   152,   153,   154,   155,   156,   157,   158,   159,   160
   161,   162,   163,   164,   165,   166,   167,   168,   169,   170,   171,   172,   173,   174,   175,   176
   177,   178,   179,   180,   181,   182,   183,   184,   185,   186,   187,   188,   189,   190,   191,   192
   193,   194,   195,   196,   197,   198,   199,   200,   201,   202,   203,   304,   405,   506,   607,   708
   809,   910,  1011,  1112,  1213,  1314,  1415,  1516,  1617,  1718,  1819,  1920,  2021,  2122,  2223,  2324
  2425,  2526,  2627,  2728,  2829,  2930,  3031,  3132,  3233,  3334,  3435,  3536,  3637,  3738,  3839,  3940
  4041,  4142,  4243,  4344,  4445,  4546,  4647,  4748,  4849,  4950,  5051,  5152,  5253,  5354,  5455,  5556
  5657,  5758,  5859,  5960,  6061,  6162,  6263,  6364,  6465,  6566,  6667,  6768,  6869,  6970,  7071,  7172
  7273,  7374,  7475,  7576,  7677,  7778,  7879,  7980,  8081,  8182,  8283,  8384,  8485,  8586,  8687,  8788
  8889,  8990,  9091,  9192,  9293,  9394,  9495,  9596,  9697,  9798,  9899, 10000, 10101, 10202, 10303, 10404
 10505, 10606, 10707, 10808, 10909, 11010, 11111, 11212, 11313, 11414, 11515, 11616, 11717, 11818, 11919, 12020
** ... 18 like lines cut
*Elset, elset=_PickedSet9, internal, instance=Part-1-1
     1,     2,     3,     4,     5,     6,     7,     8,     9,    10,    11,    12,    13,    14,    15,    16
    17,    18,    19,    20,    21,    22,    23,    24,    25,    26,    27,    28,    29,    30,    31,    32
    33,    34,    35,    36,    37,    38,    39,    40,    41,    42,    43,    44,    45,    46,    47,    48
    49,    50,    51,    52,    53,    54,    55,    56,    57,    58,    59,    60,    61,    62,    63,    64
    65,    66,    67,    68,    69,    70,    71,    72,    73,    74,    75,    76,    77,    78,    79,    80
    81,    82,    83,    84,    85,    86,    87,    88,    89,    90,    91,    92,    93,    94,    95,    96
    97,    98,    99,   100,   101,   201,   301,   401,   501,   601,   701,   801,   901,  1001,  1101,  1201
  1301,  1401,  1501,  1601,  1701,  1801,  1901,  2001,  2101,  2201,  2301,  2401,  2501,  2601,  2701,  2801
  2901,  3001,  3101,  3201,  3301,  3401,  3501,  3601,  3701,  3801,  3901,  4001,  4101,  4201,  4301,  4401
  4501,  4601,  4701,  4801,  4901,  5001,  5101,  5201,  5301,  5401,  5501,  5601,  5701,  5801,  5901,  6001
  6101,  6201,  6301,  6401,  6501,  6601,  6701,  6801,  6901,  7001,  7101,  7201,  7301,  7401,  7501,  7601
  7701,  7801,  7901,  8001,  8101,  8201,  8301,  8401,  8501,  8601,  8701,  8801,  8901,  9001,  9101,  9201
  9301,  9401,  9501,  9601,  9701,  9801,  9901,  9902,  9903,  9904,  9905,  9906,  9907,  9908,  9909,  9910
  9911,  9912,  9913,  9914,  9915,  9916,  9917,  9918,  9919,  9920,  9921,  9922,  9923,  9924,  9925,  9926
  9927,  9928,  9929,  9930,  9931,  9932,  9933,  9934,  9935,  9936,  9937,  9938,  9939,  9940,  9941,  9942
  9943,  9944,  9945,  9946,  9947,  9948,  9949,  9950,  9951,  9952,  9953,  9954,  9955,  9956,  9957,  9958
  9959,  9960,  9961,  9962,  9963,  9964,  9965,  9966,  9967,  9968,  9969,  9970,  9971,  9972,  9973,  9974
  9975,  9976,  9977,  9978,  9979,  9980,  9981,  9982,  9983,  9984,  9985,  9986,  9987,  9988,  9989,  9990
  9991,  9992,  9993,  9994,  9995,  9996,  9997,  9998,  9999, 10000
*End Assembly
** 
** MATERIALS
** 
*Material, name=Material-1
*Elastic
1000., 0.3
*Material, name=Material-2
*Elastic
1000., 0.3
*Plastic
 50.,0.
550.,1.
** ----------------------------------------------------------------
** 
** STEP: Step-1
** 
*Step, name=Step-1, nlgeom=NO, inc=50
*Static, direct
0.02, 1., 
** 
** BOUNDARY CONDITIONS
** 
** Name: BC-1 Type: Displacement/Rotation
*Boundary
_PickedSet4, 3, 3
** Name: BC-2 Type: Displacement/Rotation
*Boundary
_PickedSet5, 2, 2
** Name: BC-3 Type: Displacement/Rotation
*Boundary
_PickedSet6, 1, 1
** Name: BC-5 Type: Displacement/Rotation Using Analytical Field: AnalyticalField-1
*Boundary
Part-1-1.1, 1, 1, 1.
Part-1-1.2, 1, 1, 0.99
Part-1-1.3, 1, 1, 0.98
Part-1-1.4, 1, 1, 0.97
Part-1-1.5, 1, 1, 0.96
Part-1-1.6, 1, 1, 0.95
Part-1-1.7, 1, 1, 0.94
Part-1-1.8, 1, 1, 0.93
Part-1-1.9, 1, 1, 0.92
Part-1-1.10, 1, 1, 0.91
Part-1-1.11, 1, 1, 0.9
Part-1-1.12, 1, 1, 0.89
Part-1-1.13, 1, 1, 0.88
Part-1-1.14, 1, 1, 0.87
Part-1-1.15, 1, 1, 0.86
Part-1-1.16, 1, 1, 0.85
Part-1-1.17, 1, 1, 0.84
Part-1-1.18, 1, 1, 0.83
Part-1-1.19, 1, 1, 0.82
Part-1-1.20, 1, 1, 0.81
** ... 582 like lines cut
** 
** OUTPUT REQUESTS
** 
*Restart, write, frequency=0
** 
** FIELD OUTPUT: F-Output-1
** 
*Output, field, variable=PRESELECT
** 
** HISTORY OUTPUT: H-Output-1
** 
*Output, history, variable=PRESELECT
*End Step
